REMARK  Name = 
REMARK  5 active torsions:
REMARK  status: ('A' for Active; 'I' for Inactive)
REMARK    1  A    between atoms: C_1  and  C_2
REMARK    2  A    between atoms: C_2  and  N_3
REMARK    3  A    between atoms: N_3  and  C_4
REMARK    4  A    between atoms: C_4  and  C_5
REMARK    5  A    between atoms: C_6  and  C_8
REMARK                            x       y       z     vdW  Elec       q    Type
REMARK                         _______ _______ _______ _____ _____    ______ ____
ROOT
ATOM      1  N   UNL     1       0.984   2.461  -0.123  0.00  0.00    +0.000 N 
ATOM      2  C   UNL     1       2.358   2.752  -0.212  0.00  0.00    +0.000 C 
ATOM      3  O   UNL     1       3.202   2.066   0.369  0.00  0.00    +0.000 OA
ENDROOT
BRANCH   2   4
ATOM      4  C   UNL     1       2.873   3.885  -1.031  0.00  0.00    +0.000 A 
ATOM      5  C   UNL     1       2.224   5.120  -1.117  0.00  0.00    +0.000 A 
ATOM      6  C   UNL     1       2.726   6.129  -1.943  0.00  0.00    +0.000 A 
ATOM      7  C   UNL     1       3.924   5.939  -2.630  0.00  0.00    +0.000 A 
ATOM      8  C   UNL     1       4.631   4.748  -2.478  0.00  0.00    +0.000 A 
ATOM      9  C   UNL     1       4.106   3.724  -1.685  0.00  0.00    +0.000 A 
ENDBRANCH   2   4
BRANCH   1  11
ATOM     10  C   UNL     1       0.677  -0.007  -0.108  0.00  0.00    +0.000 C 
ATOM     11  C   UNL     1       0.616   1.294   0.682  0.00  0.00    +0.000 C 
ENDBRANCH   1  11
BRANCH   1  12
ATOM     12  C   UNL     1      -0.081   3.002  -0.986  0.00  0.00    +0.000 C 
ATOM     13  C   UNL     1      -1.136   3.780  -0.200  0.00  0.00    +0.000 C 
ENDBRANCH   1  12
TORSDOF 3
