REMARK  Name = 
REMARK  6 active torsions:
REMARK  status: ('A' for Active; 'I' for Inactive)
REMARK    1  A    between atoms: C_1  and  N_2
REMARK    2  A    between atoms: C_5  and  C_6
REMARK    3  A    between atoms: C_9  and  C_10
REMARK    4  A    between atoms: N_18  and  C_19
REMARK    5  A    between atoms: C_19  and  C_20
REMARK    6  A    between atoms: C_19  and  C_28
REMARK                            x       y       z     vdW  Elec       q    Type
REMARK                         _______ _______ _______ _____ _____    ______ ____
ROOT
ATOM      1  C   UNL     1      10.526   4.136   3.499  0.00  0.00    +0.000 A 
ATOM      2  C   UNL     1      11.414   4.128   2.404  0.00  0.00    +0.000 A 
ATOM      3  C   UNL     1      10.908   4.092   1.109  0.00  0.00    +0.000 A 
ATOM      4  C   UNL     1       9.526   4.116   0.971  0.00  0.00    +0.000 A 
ATOM      5  C   UNL     1       8.743   4.718   1.953  0.00  0.00    +0.000 A 
ATOM      6  C   UNL     1       9.220   4.628   3.266  0.00  0.00    +0.000 A 
ATOM      7  C   UNL     1       7.307   4.980   1.555  0.00  0.00    +0.000 C 
ATOM      8  C   UNL     1       6.736   3.737   0.845  0.00  0.00    +0.000 C 
ATOM      9  N   UNL     1       7.598   2.574   1.024  0.00  0.00    +0.000 N 
ATOM     10  C   UNL     1       8.872   2.837   0.467  0.00  0.00    +0.000 C 
ATOM     11  O   UNL     1       9.464   2.073  -0.283  0.00  0.00    +0.000 OA
ENDROOT
BRANCH   1  15
ATOM     12  C   UNL     1      11.287   1.433   6.842  0.00  0.00    +0.000 A 
ATOM     13  C   UNL     1      10.553   2.619   7.023  0.00  0.00    +0.000 A 
ATOM     14  C   UNL     1      10.319   3.533   5.973  0.00  0.00    +0.000 A 
ATOM     15  C   UNL     1      10.871   3.331   4.709  0.00  0.00    +0.000 A 
ATOM     16  C   UNL     1      11.679   2.179   4.569  0.00  0.00    +0.000 A 
ATOM     17  C   UNL     1      11.868   1.243   5.594  0.00  0.00    +0.000 A 
BRANCH  12  22
ATOM     18  C   UNL     1      11.338  -3.018  10.553  0.00  0.00    +0.000 C 
ATOM     19  N   UNL     1      11.191  -2.153   9.380  0.00  0.00    +0.000 N 
ATOM     20  C   UNL     1      10.277  -1.046   9.677  0.00  0.00    +0.000 C 
ATOM     21  C   UNL     1      10.098  -0.121   8.471  0.00  0.00    +0.000 C 
ATOM     22  C   UNL     1      11.448   0.439   7.988  0.00  0.00    +0.000 C 
ATOM     23  C   UNL     1      12.381  -0.758   7.713  0.00  0.00    +0.000 C 
ATOM     24  C   UNL     1      12.503  -1.660   8.943  0.00  0.00    +0.000 C 
ATOM     25  H   UNL     1      10.790  -2.695   8.615  0.00  0.00    +0.000 HD
ENDBRANCH  12  22
ENDBRANCH   1  15
BRANCH   9  26
ATOM     26  C   UNL     1       7.336   1.707   2.260  0.00  0.00    +0.000 C 
BRANCH  26  27
ATOM     27  C   UNL     1       6.611   2.389   3.530  0.00  0.00    +0.000 C 
ATOM     28  O   UNL     1       5.591   3.062   3.342  0.00  0.00    +0.000 OA
ATOM     29  N   UNL     1       7.115   2.152   4.798  0.00  0.00    +0.000 N 
ATOM     30  C   UNL     1       6.493   2.661   5.944  0.00  0.00    +0.000 A 
ATOM     31  N   UNL     1       5.457   3.444   6.067  0.00  0.00    +0.000 NA
ATOM     32  C   UNL     1       5.258   3.753   7.407  0.00  0.00    +0.000 A 
ATOM     33  C   UNL     1       6.166   3.202   8.279  0.00  0.00    +0.000 A 
ATOM     34  S   UNL     1       7.215   2.171   7.410  0.00  0.00    +0.000 S 
ATOM     35  H   UNL     1       7.932   1.611   4.895  0.00  0.00    +0.000 HD
ENDBRANCH  26  27
BRANCH  26  36
ATOM     36  C   UNL     1       8.322   0.582   2.617  0.00  0.00    +0.000 A 
ATOM     37  C   UNL     1       7.834  -0.597   3.224  0.00  0.00    +0.000 A 
ATOM     38  C   UNL     1       8.680  -1.676   3.522  0.00  0.00    +0.000 A 
ATOM     39  C   UNL     1      10.032  -1.611   3.209  0.00  0.00    +0.000 A 
ATOM     40  C   UNL     1      10.529  -0.455   2.639  0.00  0.00    +0.000 A 
ATOM     41  F   UNL     1      11.835  -0.365   2.350  0.00  0.00    +0.000 F 
ATOM     42  C   UNL     1       9.698   0.632   2.378  0.00  0.00    +0.000 A 
ENDBRANCH  26  36
ENDBRANCH   9  26
TORSDOF 5
