
     RDKit          3D

 68 73  0  0  0  0  0  0  0  0999 V2000
   10.4614   -0.9030   -0.2402 C   0  0  0  0  0  0  0  0  0  0  0  0
    9.1153   -0.8609   -0.8329 N   0  0  0  0  0  0  0  0  0  0  0  0
    8.1164   -1.5307    0.0389 C   0  0  0  0  0  0  0  0  0  0  0  0
    7.3668   -0.5518    0.9605 C   0  0  0  0  0  0  0  0  0  0  0  0
    6.6846    0.6022    0.1775 C   0  0  0  0  0  0  0  0  0  0  0  0
    5.1714    0.4710    0.1495 C   0  0  0  0  0  0  0  0  0  0  0  0
    4.3657    1.5074    0.6516 C   0  0  0  0  0  0  0  0  0  0  0  0
    2.9727    1.4043    0.6201 C   0  0  0  0  0  0  0  0  0  0  0  0
    2.3531    0.2641    0.0809 C   0  0  0  0  0  0  0  0  0  0  0  0
    0.8728    0.1493    0.0520 C   0  0  0  0  0  0  0  0  0  0  0  0
    0.2191   -0.3824   -1.0746 C   0  0  0  0  0  0  0  0  0  0  0  0
   -1.1731   -0.5069   -1.0974 C   0  0  0  0  0  0  0  0  0  0  0  0
   -1.9378   -0.1050    0.0112 C   0  0  0  0  0  0  0  0  0  0  0  0
   -3.3393   -0.2219    0.0417 C   0  0  0  0  0  0  0  0  0  0  0  0
   -3.9462   -0.6834   -0.9646 O   0  0  0  0  0  0  0  0  0  0  0  0
   -4.0426    0.1696    1.1593 N   0  0  0  0  0  0  0  0  0  0  0  0
   -5.5208    0.0627    1.2394 C   0  0  0  0  0  0  0  0  0  0  0  0
   -6.2015    1.1279    0.4073 C   0  0  0  0  0  0  0  0  0  0  0  0
   -5.5769    1.6953   -0.5306 O   0  0  0  0  0  0  0  0  0  0  0  0
   -7.5706    1.4689    0.6794 N   0  0  0  0  0  0  0  0  0  0  0  0
   -8.2963    2.4883   -0.0196 C   0  0  0  0  0  0  0  0  0  0  0  0
   -7.7789    3.2448   -1.0120 N   0  0  0  0  0  0  0  0  0  0  0  0
   -8.6869    4.1389   -1.4859 C   0  0  0  0  0  0  0  0  0  0  0  0
   -9.9330    4.0971   -0.8705 C   0  0  0  0  0  0  0  0  0  0  0  0
   -9.8920    2.8975    0.3092 S   0  0  0  0  0  0  0  0  0  0  0  0
   -5.9935   -1.3543    0.9440 C   0  0  0  0  0  0  0  0  0  0  0  0
   -5.6987   -2.3692    1.8728 C   0  0  0  0  0  0  0  0  0  0  0  0
   -6.0970   -3.6884    1.6365 C   0  0  0  0  0  0  0  0  0  0  0  0
   -6.7894   -4.0122    0.4679 C   0  0  0  0  0  0  0  0  0  0  0  0
   -7.0814   -3.0175   -0.4686 C   0  0  0  0  0  0  0  0  0  0  0  0
   -6.6853   -1.6968   -0.2379 C   0  0  0  0  0  0  0  0  0  0  0  0
   -3.3688    0.7032    2.2265 C   0  0  0  0  0  0  0  0  0  0  0  0
   -2.0182    0.8245    2.2085 N   0  0  0  0  0  0  0  0  0  0  0  0
   -1.2894    0.4326    1.1367 C   0  0  0  0  0  0  0  0  0  0  0  0
    0.1038    0.5612    1.1553 C   0  0  0  0  0  0  0  0  0  0  0  0
    3.1585   -0.7697   -0.4273 C   0  0  0  0  0  0  0  0  0  0  0  0
    4.5508   -0.6672   -0.3942 C   0  0  0  0  0  0  0  0  0  0  0  0
    7.2501    0.7547   -1.2483 C   0  0  0  0  0  0  0  0  0  0  0  0
    8.7643    0.5241   -1.2319 C   0  0  0  0  0  0  0  0  0  0  0  0
   10.7887   -1.9578   -0.1155 H   0  0  0  0  0  0  0  0  0  0  0  0
   11.1956   -0.4072   -0.9127 H   0  0  0  0  0  0  0  0  0  0  0  0
   10.4770   -0.4007    0.7509 H   0  0  0  0  0  0  0  0  0  0  0  0
    8.5869   -2.3251    0.6614 H   0  0  0  0  0  0  0  0  0  0  0  0
    7.3842   -2.0558   -0.6095 H   0  0  0  0  0  0  0  0  0  0  0  0
    6.6280   -1.1149    1.5715 H   0  0  0  0  0  0  0  0  0  0  0  0
    8.1029   -0.1223    1.6749 H   0  0  0  0  0  0  0  0  0  0  0  0
    6.9433    1.5401    0.7197 H   0  0  0  0  0  0  0  0  0  0  0  0
    4.8140    2.4022    1.0655 H   0  0  0  0  0  0  0  0  0  0  0  0
    2.3809    2.2266    1.0016 H   0  0  0  0  0  0  0  0  0  0  0  0
    0.7845   -0.6897   -1.9457 H   0  0  0  0  0  0  0  0  0  0  0  0
   -1.6459   -0.9202   -1.9795 H   0  0  0  0  0  0  0  0  0  0  0  0
   -5.8478    0.2638    2.2854 H   0  0  0  0  0  0  0  0  0  0  0  0
   -8.0707    0.9499    1.4360 H   0  0  0  0  0  0  0  0  0  0  0  0
   -8.4482    4.8288   -2.2838 H   0  0  0  0  0  0  0  0  0  0  0  0
  -10.7782    4.7284   -1.1095 H   0  0  0  0  0  0  0  0  0  0  0  0
   -5.1567   -2.1361    2.7814 H   0  0  0  0  0  0  0  0  0  0  0  0
   -5.8681   -4.4603    2.3608 H   0  0  0  0  0  0  0  0  0  0  0  0
   -7.0973   -5.0344    0.2870 H   0  0  0  0  0  0  0  0  0  0  0  0
   -7.6123   -3.2696   -1.3774 H   0  0  0  0  0  0  0  0  0  0  0  0
   -6.9136   -0.9527   -0.9899 H   0  0  0  0  0  0  0  0  0  0  0  0
   -3.9013    1.0367    3.1085 H   0  0  0  0  0  0  0  0  0  0  0  0
    0.5863    0.9608    2.0396 H   0  0  0  0  0  0  0  0  0  0  0  0
    2.7110   -1.6662   -0.8371 H   0  0  0  0  0  0  0  0  0  0  0  0
    5.1413   -1.4789   -0.7942 H   0  0  0  0  0  0  0  0  0  0  0  0
    6.7855    0.0241   -1.9465 H   0  0  0  0  0  0  0  0  0  0  0  0
    7.0315    1.7766   -1.6293 H   0  0  0  0  0  0  0  0  0  0  0  0
    9.2252    1.2739   -0.5474 H   0  0  0  0  0  0  0  0  0  0  0  0
    9.1642    0.7118   -2.2506 H   0  0  0  0  0  0  0  0  0  0  0  0
  1  2  1  0
  2  3  1  0
  3  4  1  0
  4  5  1  0
  5  6  1  0
  6  7  2  0
  7  8  1  0
  8  9  2  0
  9 10  1  0
 10 11  2  0
 11 12  1  0
 12 13  2  0
 13 14  1  0
 14 15  2  0
 14 16  1  0
 16 17  1  0
 17 18  1  0
 18 19  2  0
 18 20  1  0
 20 21  1  0
 21 22  2  0
 22 23  1  0
 23 24  2  0
 24 25  1  0
 17 26  1  0
 26 27  2  0
 27 28  1  0
 28 29  2  0
 29 30  1  0
 30 31  2  0
 16 32  1  0
 32 33  2  0
 33 34  1  0
 34 35  2  0
  9 36  1  0
 36 37  2  0
  5 38  1  0
 38 39  1  0
 39  2  1  0
 37  6  1  0
 35 10  1  0
 34 13  1  0
 25 21  1  0
 31 26  1  0
  1 40  1  0
  1 41  1  0
  1 42  1  0
  3 43  1  0
  3 44  1  0
  4 45  1  0
  4 46  1  0
  5 47  1  0
  7 48  1  0
  8 49  1  0
 11 50  1  0
 12 51  1  0
 17 52  1  0
 20 53  1  0
 23 54  1  0
 24 55  1  0
 27 56  1  0
 28 57  1  0
 29 58  1  0
 30 59  1  0
 31 60  1  0
 32 61  1  0
 35 62  1  0
 36 63  1  0
 37 64  1  0
 38 65  1  0
 38 66  1  0
 39 67  1  0
 39 68  1  0
M  END
$$$$
