REMARK  Name = 
REMARK  6 active torsions:
REMARK  status: ('A' for Active; 'I' for Inactive)
REMARK    1  A    between atoms: C_1  and  N_2
REMARK    2  A    between atoms: C_5  and  C_6
REMARK    3  A    between atoms: C_9  and  C_10
REMARK    4  A    between atoms: N_16  and  C_17
REMARK    5  A    between atoms: C_17  and  C_18
REMARK    6  A    between atoms: C_17  and  C_26
REMARK                            x       y       z     vdW  Elec       q    Type
REMARK                         _______ _______ _______ _____ _____    ______ ____
ROOT
ATOM      1  C   UNL     1       7.458   0.090   1.474  0.00  0.00    +0.000 A 
ATOM      2  C   UNL     1       8.216  -0.287   0.358  0.00  0.00    +0.000 A 
ATOM      3  C   UNL     1       9.430  -0.904   0.510  0.00  0.00    +0.000 A 
ATOM      4  C   UNL     1       9.964  -0.901   1.778  0.00  0.00    +0.000 A 
ATOM      5  C   UNL     1      11.322  -1.321   2.028  0.00  0.00    +0.000 A 
ATOM      6  O   UNL     1      11.574  -2.407   2.540  0.00  0.00    +0.000 OA
ATOM      7  N   UNL     1      12.140  -0.248   1.954  0.00  0.00    +0.000 N 
ATOM      8  C   UNL     1      11.767   0.664   2.915  0.00  0.00    +0.000 A 
ATOM      9  N   UNL     1      10.550   0.760   3.413  0.00  0.00    +0.000 NA
ATOM     10  C   UNL     1       9.527   0.012   2.715  0.00  0.00    +0.000 A 
ATOM     11  C   UNL     1       8.174   0.362   2.669  0.00  0.00    +0.000 A 
ENDROOT
BRANCH   1  15
ATOM     12  C   UNL     1       3.283   0.182   0.374  0.00  0.00    +0.000 A 
ATOM     13  C   UNL     1       4.160  -0.751  -0.171  0.00  0.00    +0.000 A 
ATOM     14  C   UNL     1       5.475  -0.804   0.286  0.00  0.00    +0.000 A 
ATOM     15  C   UNL     1       5.993   0.119   1.232  0.00  0.00    +0.000 A 
ATOM     16  C   UNL     1       5.105   0.995   1.809  0.00  0.00    +0.000 A 
ATOM     17  C   UNL     1       3.763   1.040   1.388  0.00  0.00    +0.000 A 
BRANCH  12  22
ATOM     18  C   UNL     1      -2.235   1.523  -0.509  0.00  0.00    +0.000 C 
ATOM     19  N   UNL     1      -0.836   1.383  -0.102  0.00  0.00    +0.000 N 
ATOM     20  C   UNL     1      -0.595   0.053   0.473  0.00  0.00    +0.000 C 
ATOM     21  C   UNL     1       0.844  -0.077   0.972  0.00  0.00    +0.000 C 
ATOM     22  C   UNL     1       1.853   0.236  -0.139  0.00  0.00    +0.000 C 
ATOM     23  C   UNL     1       1.523   1.579  -0.804  0.00  0.00    +0.000 C 
ATOM     24  C   UNL     1       0.058   1.639  -1.238  0.00  0.00    +0.000 C 
ATOM     25  H   UNL     1      -0.638   2.077   0.620  0.00  0.00    +0.000 HD
ENDBRANCH  12  22
ENDBRANCH   1  15
BRANCH   7  26
ATOM     26  C   UNL     1      12.617   0.032   0.568  0.00  0.00    +0.000 C 
BRANCH  26  27
ATOM     27  C   UNL     1      11.762   0.961  -0.407  0.00  0.00    +0.000 C 
ATOM     28  O   UNL     1      11.527   0.573  -1.552  0.00  0.00    +0.000 OA
ATOM     29  N   UNL     1      11.315   2.161   0.104  0.00  0.00    +0.000 N 
ATOM     30  C   UNL     1      10.408   2.961  -0.556  0.00  0.00    +0.000 A 
ATOM     31  N   UNL     1      10.004   2.957  -1.812  0.00  0.00    +0.000 NA
ATOM     32  C   UNL     1       9.094   3.985  -2.007  0.00  0.00    +0.000 A 
ATOM     33  C   UNL     1       8.776   4.728  -0.891  0.00  0.00    +0.000 A 
ATOM     34  S   UNL     1       9.677   4.137   0.450  0.00  0.00    +0.000 S 
ATOM     35  H   UNL     1      11.659   2.459   0.977  0.00  0.00    +0.000 HD
ENDBRANCH  26  27
BRANCH  26  36
ATOM     36  C   UNL     1      14.125  -0.070   0.313  0.00  0.00    +0.000 A 
ATOM     37  C   UNL     1      14.805  -1.295   0.538  0.00  0.00    +0.000 A 
ATOM     38  C   UNL     1      16.138  -1.478   0.136  0.00  0.00    +0.000 A 
ATOM     39  C   UNL     1      16.813  -0.450  -0.512  0.00  0.00    +0.000 A 
ATOM     40  C   UNL     1      16.170   0.767  -0.719  0.00  0.00    +0.000 A 
ATOM     41  C   UNL     1      14.845   0.963  -0.298  0.00  0.00    +0.000 A 
ENDBRANCH  26  36
ENDBRANCH   7  26
TORSDOF 5
