REMARK  Name = 
REMARK  14 active torsions:
REMARK  status: ('A' for Active; 'I' for Inactive)
REMARK    1  A    between atoms: C_1  and  C_2
REMARK    2  A    between atoms: C_2  and  C_3
REMARK    3  A    between atoms: C_5  and  N_6
REMARK    4  A    between atoms: N_13  and  C_14
REMARK    5  A    between atoms: C_19  and  P_20
REMARK    6  A    between atoms: P_20  and  C_21
REMARK    7  A    between atoms: P_20  and  C_22
REMARK    8  A    between atoms: C_28  and  O_29
REMARK    9  A    between atoms: O_29  and  C_30
REMARK   10  A    between atoms: C_32  and  N_33
REMARK   11  A    between atoms: C_36  and  N_37
REMARK   12  A    between atoms: C_39  and  N_40
REMARK   13  A    between atoms: N_40  and  C_41
REMARK   14  A    between atoms: N_40  and  C_42
REMARK                            x       y       z     vdW  Elec       q    Type
REMARK                         _______ _______ _______ _____ _____    ______ ____
ROOT
ATOM      1  C   UNL     1       0.924   0.750  -2.367  0.00  0.00    +0.000 A 
ATOM      2  C   UNL     1       1.515   1.647  -3.284  0.00  0.00    +0.000 A 
ATOM      3  C   UNL     1       2.070   1.264  -4.518  0.00  0.00    +0.000 A 
ATOM      4  C   UNL     1       1.941  -0.084  -4.869  0.00  0.00    +0.000 A 
ATOM      5  C   UNL     1       1.278  -0.977  -3.989  0.00  0.00    +0.000 A 
ATOM      6  C   UNL     1       0.738  -0.594  -2.745  0.00  0.00    +0.000 A 
ENDROOT
BRANCH   3   7
ATOM      7  N   UNL     1       2.602   2.267  -5.378  0.00  0.00    +0.000 N 
ATOM      8  C   UNL     1       3.027   3.545  -4.964  0.00  0.00    +0.000 A 
ATOM      9  N   UNL     1       3.671   3.679  -3.792  0.00  0.00    +0.000 NA
ATOM     10  C   UNL     1       3.884   4.927  -3.336  0.00  0.00    +0.000 A 
ATOM     11  C   UNL     1       3.526   6.053  -4.026  0.00  0.00    +0.000 A 
ATOM     12 BR   UNL     1       3.836   7.763  -3.285  0.00  0.00    +0.000 Br
ATOM     13  C   UNL     1       2.970   5.856  -5.286  0.00  0.00    +0.000 A 
ATOM     14  N   UNL     1       2.634   6.982  -6.099  0.00  0.00    +0.000 N 
ATOM     15  N   UNL     1       2.713   4.598  -5.742  0.00  0.00    +0.000 NA
ATOM     16  H   UNL     1       2.680   2.050  -6.335  0.00  0.00    +0.000 HD
ATOM     17  H   UNL     1       2.395   7.822  -5.644  0.00  0.00    +0.000 HD
BRANCH  14  18
ATOM     18  C   UNL     1       2.623   6.969  -7.513  0.00  0.00    +0.000 A 
ATOM     19  C   UNL     1       3.549   6.146  -8.205  0.00  0.00    +0.000 A 
ATOM     20  C   UNL     1       3.515   5.992  -9.589  0.00  0.00    +0.000 A 
ATOM     21  C   UNL     1       2.498   6.616 -10.258  0.00  0.00    +0.000 A 
ATOM     22  C   UNL     1       1.638   7.474  -9.615  0.00  0.00    +0.000 A 
ATOM     23  C   UNL     1       1.754   7.789  -8.266  0.00  0.00    +0.000 A 
ATOM     24  O   UNL     1       0.708   7.979 -10.476  0.00  0.00    +0.000 OA
ATOM     25  C   UNL     1       1.041   7.291 -11.695  0.00  0.00    +0.000 C 
ATOM     26  O   UNL     1       2.244   6.509 -11.588  0.00  0.00    +0.000 OA
BRANCH  23  27
ATOM     27  P   UNL     1       1.008   9.272  -7.660  0.00  0.00    +0.000 P 
ATOM     28  C   UNL     1       2.354  10.284  -6.980  0.00  0.00    +0.000 C 
ATOM     29  C   UNL     1       0.501  10.354  -9.024  0.00  0.00    +0.000 C 
ATOM     30  O   UNL     1      -0.099   9.163  -6.645  0.00  0.00    +0.000 OA
ENDBRANCH  23  27
ENDBRANCH  14  18
ENDBRANCH   3   7
BRANCH   6  31
ATOM     31  N   UNL     1       0.041  -1.506  -1.948  0.00  0.00    +0.000 N 
ATOM     32  C   UNL     1       0.333  -2.944  -1.953  0.00  0.00    +0.000 C 
ATOM     33  C   UNL     1      -0.786  -3.746  -2.624  0.00  0.00    +0.000 C 
ATOM     34  C   UNL     1      -2.155  -3.424  -1.994  0.00  0.00    +0.000 C 
ATOM     35  C   UNL     1      -2.386  -1.912  -2.103  0.00  0.00    +0.000 C 
ATOM     36  C   UNL     1      -1.274  -1.132  -1.424  0.00  0.00    +0.000 C 
BRANCH  34  37
ATOM     37  N   UNL     1      -3.230  -4.131  -2.711  0.00  0.00    +0.000 N 
ATOM     38  C   UNL     1      -4.570  -3.860  -2.111  0.00  0.00    +0.000 C 
ATOM     39  C   UNL     1      -4.905  -5.358  -2.243  0.00  0.00    +0.000 C 
ATOM     40  C   UNL     1      -3.369  -5.554  -2.302  0.00  0.00    +0.000 C 
ATOM     41  H   UNL     1      -3.013  -3.885  -3.677  0.00  0.00    +0.000 HD
BRANCH  39  42
ATOM     42  N   UNL     1      -5.658  -5.668  -3.488  0.00  0.00    +0.000 N 
ATOM     43  C   UNL     1      -5.971  -7.095  -3.514  0.00  0.00    +0.000 C 
ATOM     44  C   UNL     1      -5.032  -5.257  -4.743  0.00  0.00    +0.000 C 
ATOM     45  H   UNL     1      -6.503  -5.098  -3.441  0.00  0.00    +0.000 HD
ENDBRANCH  39  42
ENDBRANCH  34  37
ENDBRANCH   6  31
BRANCH   1  47
ATOM     46  C   UNL     1       1.390   2.400  -0.418  0.00  0.00    +0.000 C 
ATOM     47  C   UNL     1       0.505   1.305  -1.013  0.00  0.00    +0.000 C 
ENDBRANCH   1  47
BRANCH   4  48
ATOM     48  O   UNL     1       2.310  -0.690  -6.045  0.00  0.00    +0.000 OA
ATOM     49  C   UNL     1       3.433  -0.184  -6.751  0.00  0.00    +0.000 C 
ENDBRANCH   4  48
TORSDOF 8
