REMARK  Name = 
REMARK  4 active torsions:
REMARK  status: ('A' for Active; 'I' for Inactive)
REMARK    1  A    between atoms: C_1  and  O_2
REMARK    2  A    between atoms: O_2  and  C_3
REMARK    3  A    between atoms: C_6  and  C_9
REMARK    4  A    between atoms: N_11  and  C_12
REMARK                            x       y       z     vdW  Elec       q    Type
REMARK                         _______ _______ _______ _____ _____    ______ ____
ROOT
ATOM      1  C   UNL     1       2.035   0.324   6.319  0.00  0.00    +0.000 C 
ATOM      2  O   UNL     1       3.261   0.282   6.430  0.00  0.00    +0.000 OA
ATOM      3  N   UNL     1       1.124   0.280   7.364  0.00  0.00    +0.000 N 
ATOM      4  H   UNL     1       0.167   0.284   7.131  0.00  0.00    +0.000 HD
ENDROOT
BRANCH   1   8
ATOM      5  C   UNL     1       0.616   0.616   2.268  0.00  0.00    +0.000 A 
ATOM      6  C   UNL     1       1.838   0.014   2.557  0.00  0.00    +0.000 A 
ATOM      7  C   UNL     1       2.260  -0.111   3.885  0.00  0.00    +0.000 A 
ATOM      8  C   UNL     1       1.468   0.371   4.940  0.00  0.00    +0.000 A 
ATOM      9  C   UNL     1       0.230   0.950   4.651  0.00  0.00    +0.000 A 
ATOM     10  C   UNL     1      -0.191   1.064   3.319  0.00  0.00    +0.000 A 
BRANCH   5  12
ATOM     11  C   UNL     1       0.924   0.460  -0.085  0.00  0.00    +0.000 C 
ATOM     12  O   UNL     1       0.106   0.836   1.018  0.00  0.00    +0.000 OA
ENDBRANCH   5  12
ENDBRANCH   1   8
BRANCH   3  13
ATOM     13  C   UNL     1       1.457   0.232   8.738  0.00  0.00    +0.000 A 
ATOM     14  C   UNL     1       2.708   0.603   9.238  0.00  0.00    +0.000 A 
ATOM     15  C   UNL     1       3.013   0.436  10.592  0.00  0.00    +0.000 A 
ATOM     16  C   UNL     1       2.064  -0.093  11.462  0.00  0.00    +0.000 A 
ATOM     17  C   UNL     1       0.793  -0.409  10.986  0.00  0.00    +0.000 A 
ATOM     18  C   UNL     1       0.484  -0.229   9.634  0.00  0.00    +0.000 A 
ENDBRANCH   3  13
TORSDOF 3
