
     RDKit          3D

 65 69  0  0  0  0  0  0  0  0999 V2000
    6.1761    3.8011    3.2942 C   0  0  0  0  0  0  0  0  0  0  0  0
    5.0666    3.6727    2.5674 C   0  0  0  0  0  0  0  0  0  0  0  0
    5.0270    2.8925    1.3119 C   0  0  0  0  0  0  0  0  0  0  0  0
    6.1026    2.4717    0.8039 O   0  0  0  0  0  0  0  0  0  0  0  0
    3.7765    2.6242    0.6477 N   0  0  0  0  0  0  0  0  0  0  0  0
    2.5350    2.4092    1.4015 C   0  0  0  0  0  0  0  0  0  0  0  0
    1.8709    1.1048    0.9504 C   0  0  0  0  0  0  0  0  0  0  0  0
    1.6888    1.0760   -0.5805 C   0  0  0  0  0  0  0  0  0  0  0  0
    1.1658   -0.1880   -0.9919 O   0  0  0  0  0  0  0  0  0  0  0  0
   -0.1383   -0.6615   -0.7652 C   0  0  0  0  0  0  0  0  0  0  0  0
   -1.1597    0.1554   -0.2425 C   0  0  0  0  0  0  0  0  0  0  0  0
   -2.4413   -0.3717   -0.0007 C   0  0  0  0  0  0  0  0  0  0  0  0
   -3.4960    0.3957    0.5409 C   0  0  0  0  0  0  0  0  0  0  0  0
   -3.2961    1.7537    0.9687 N   0  0  0  0  0  0  0  0  0  0  0  0
   -4.3537    2.7271    0.9902 C   0  0  0  0  0  0  0  0  0  0  0  0
   -4.4243    3.6409    2.0517 C   0  0  0  0  0  0  0  0  0  0  0  0
   -5.4356    4.6036    2.0916 C   0  0  0  0  0  0  0  0  0  0  0  0
   -6.3827    4.6749    1.0648 C   0  0  0  0  0  0  0  0  0  0  0  0
   -7.6413    5.9014    1.1529 Cl  0  0  0  0  0  0  0  0  0  0  0  0
   -6.3082    3.7805   -0.0180 C   0  0  0  0  0  0  0  0  0  0  0  0
   -7.4663    3.8674   -1.3409 Cl  0  0  0  0  0  0  0  0  0  0  0  0
   -5.2936    2.8123   -0.0561 C   0  0  0  0  0  0  0  0  0  0  0  0
   -5.1979    1.9885   -1.1312 F   0  0  0  0  0  0  0  0  0  0  0  0
   -4.7158   -0.1818    0.7137 N   0  0  0  0  0  0  0  0  0  0  0  0
   -4.9465   -1.4760    0.3775 C   0  0  0  0  0  0  0  0  0  0  0  0
   -3.9467   -2.2337   -0.1367 N   0  0  0  0  0  0  0  0  0  0  0  0
   -2.7065   -1.7172   -0.3326 C   0  0  0  0  0  0  0  0  0  0  0  0
   -1.6984   -2.5219   -0.8694 C   0  0  0  0  0  0  0  0  0  0  0  0
   -0.4088   -2.0007   -1.0826 C   0  0  0  0  0  0  0  0  0  0  0  0
    0.6387   -2.7703   -1.6173 O   0  0  0  0  0  0  0  0  0  0  0  0
    0.6149   -4.1799   -1.8483 C   0  0  0  0  0  0  0  0  0  0  0  0
    0.6751   -4.9481   -0.5113 C   0  0  0  0  0  0  0  0  0  0  0  0
    1.2772   -6.3536   -0.6887 C   0  0  0  0  0  0  0  0  0  0  0  0
    1.0912   -6.8150   -2.0126 O   0  0  0  0  0  0  0  0  0  0  0  0
    1.9238   -6.0866   -2.9022 C   0  0  0  0  0  0  0  0  0  0  0  0
    1.8152   -4.5540   -2.7231 C   0  0  0  0  0  0  0  0  0  0  0  0
    3.0433    1.2842   -1.2754 C   0  0  0  0  0  0  0  0  0  0  0  0
    3.7026    2.5876   -0.8174 C   0  0  0  0  0  0  0  0  0  0  0  0
    6.1626    4.3887    4.2041 H   0  0  0  0  0  0  0  0  0  0  0  0
    7.1024    3.3232    3.0016 H   0  0  0  0  0  0  0  0  0  0  0  0
    4.1663    4.1684    2.9075 H   0  0  0  0  0  0  0  0  0  0  0  0
    2.7316    2.3353    2.4918 H   0  0  0  0  0  0  0  0  0  0  0  0
    1.8449    3.2619    1.2267 H   0  0  0  0  0  0  0  0  0  0  0  0
    0.8912    1.0055    1.4634 H   0  0  0  0  0  0  0  0  0  0  0  0
    2.5047    0.2461    1.2638 H   0  0  0  0  0  0  0  0  0  0  0  0
    1.0055    1.8919   -0.9041 H   0  0  0  0  0  0  0  0  0  0  0  0
   -0.9587    1.1959   -0.0417 H   0  0  0  0  0  0  0  0  0  0  0  0
   -2.4036    1.9941    1.4560 H   0  0  0  0  0  0  0  0  0  0  0  0
   -3.7006    3.5972    2.8557 H   0  0  0  0  0  0  0  0  0  0  0  0
   -5.4827    5.2950    2.9247 H   0  0  0  0  0  0  0  0  0  0  0  0
   -5.9279   -1.9057    0.5281 H   0  0  0  0  0  0  0  0  0  0  0  0
   -1.9329   -3.5461   -1.1219 H   0  0  0  0  0  0  0  0  0  0  0  0
   -0.3047   -4.4588   -2.4093 H   0  0  0  0  0  0  0  0  0  0  0  0
    1.2901   -4.3836    0.2249 H   0  0  0  0  0  0  0  0  0  0  0  0
   -0.3507   -5.0359   -0.0926 H   0  0  0  0  0  0  0  0  0  0  0  0
    0.7735   -7.0572    0.0068 H   0  0  0  0  0  0  0  0  0  0  0  0
    2.3592   -6.3507   -0.4161 H   0  0  0  0  0  0  0  0  0  0  0  0
    1.6185   -6.3448   -3.9389 H   0  0  0  0  0  0  0  0  0  0  0  0
    2.9826   -6.4130   -2.7890 H   0  0  0  0  0  0  0  0  0  0  0  0
    1.7217   -4.0626   -3.7159 H   0  0  0  0  0  0  0  0  0  0  0  0
    2.7453   -4.1752   -2.2416 H   0  0  0  0  0  0  0  0  0  0  0  0
    2.8943    1.3131   -2.3760 H   0  0  0  0  0  0  0  0  0  0  0  0
    3.7201    0.4332   -1.0419 H   0  0  0  0  0  0  0  0  0  0  0  0
    4.7114    2.6669   -1.2755 H   0  0  0  0  0  0  0  0  0  0  0  0
    3.1027    3.4518   -1.1748 H   0  0  0  0  0  0  0  0  0  0  0  0
  1  2  2  0
  2  3  1  0
  3  4  2  0
  3  5  1  0
  5  6  1  0
  6  7  1  0
  7  8  1  0
  8  9  1  0
  9 10  1  0
 10 11  2  0
 11 12  1  0
 12 13  2  0
 13 14  1  0
 14 15  1  0
 15 16  2  0
 16 17  1  0
 17 18  2  0
 18 19  1  0
 18 20  1  0
 20 21  1  0
 20 22  2  0
 22 23  1  0
 13 24  1  0
 24 25  2  0
 25 26  1  0
 26 27  2  0
 27 28  1  0
 28 29  2  0
 29 30  1  0
 30 31  1  0
 31 32  1  0
 32 33  1  0
 33 34  1  0
 34 35  1  0
 35 36  1  0
  8 37  1  0
 37 38  1  0
 38  5  1  0
 29 10  1  0
 36 31  1  0
 27 12  1  0
 22 15  1  0
  1 39  1  0
  1 40  1  0
  2 41  1  0
  6 42  1  0
  6 43  1  0
  7 44  1  0
  7 45  1  0
  8 46  1  0
 11 47  1  0
 14 48  1  0
 16 49  1  0
 17 50  1  0
 25 51  1  0
 28 52  1  0
 31 53  1  0
 32 54  1  0
 32 55  1  0
 33 56  1  0
 33 57  1  0
 35 58  1  0
 35 59  1  0
 36 60  1  0
 36 61  1  0
 37 62  1  0
 37 63  1  0
 38 64  1  0
 38 65  1  0
M  END
$$$$
