
     RDKit          3D

 71 76  0  0  0  0  0  0  0  0999 V2000
  -10.3356   -0.9457    1.5831 C   0  0  0  0  0  0  0  0  0  0  0  0
   -8.9001   -1.2502    1.4799 N   0  0  0  0  0  0  0  0  0  0  0  0
   -8.0687   -0.0529    1.7659 C   0  0  0  0  0  0  0  0  0  0  0  0
   -7.6376    0.7006    0.4950 C   0  0  0  0  0  0  0  0  0  0  0  0
   -6.9018   -0.2140   -0.5208 C   0  0  0  0  0  0  0  0  0  0  0  0
   -5.4147    0.0854   -0.6040 C   0  0  0  0  0  0  0  0  0  0  0  0
   -4.5904    0.0008    0.5322 C   0  0  0  0  0  0  0  0  0  0  0  0
   -3.2210    0.2621    0.4385 C   0  0  0  0  0  0  0  0  0  0  0  0
   -2.6426    0.6107   -0.7939 C   0  0  0  0  0  0  0  0  0  0  0  0
   -1.1851    0.8781   -0.8957 C   0  0  0  0  0  0  0  0  0  0  0  0
   -0.7068    1.9332   -1.6913 C   0  0  0  0  0  0  0  0  0  0  0  0
    0.6645    2.1733   -1.8039 C   0  0  0  0  0  0  0  0  0  0  0  0
    1.5843    1.3655   -1.1179 C   0  0  0  0  0  0  0  0  0  0  0  0
    1.1160    0.3166   -0.3018 C   0  0  0  0  0  0  0  0  0  0  0  0
   -0.2622    0.0706   -0.2077 C   0  0  0  0  0  0  0  0  0  0  0  0
    2.0921   -0.6047    0.3887 C   0  0  0  0  0  0  0  0  0  0  0  0
    3.3829    0.1337    0.7566 C   0  0  0  0  0  0  0  0  0  0  0  0
    3.9431    0.8104   -0.4238 N   0  0  0  0  0  0  0  0  0  0  0  0
    5.3921    0.7743   -0.7114 C   0  0  0  0  0  0  0  0  0  0  0  0
    5.8801   -0.6346   -0.9758 C   0  0  0  0  0  0  0  0  0  0  0  0
    5.0474   -1.5656   -1.1523 O   0  0  0  0  0  0  0  0  0  0  0  0
    7.2874   -0.8893   -1.1135 N   0  0  0  0  0  0  0  0  0  0  0  0
    7.8508   -2.2019   -1.2293 C   0  0  0  0  0  0  0  0  0  0  0  0
    7.1327   -3.3446   -1.1683 N   0  0  0  0  0  0  0  0  0  0  0  0
    7.9268   -4.4416   -1.2907 C   0  0  0  0  0  0  0  0  0  0  0  0
    9.2828   -4.1753   -1.4454 C   0  0  0  0  0  0  0  0  0  0  0  0
    9.4914   -2.5057   -1.4281 S   0  0  0  0  0  0  0  0  0  0  0  0
    6.1576    1.4755    0.3973 C   0  0  0  0  0  0  0  0  0  0  0  0
    6.3825    2.8611    0.3068 C   0  0  0  0  0  0  0  0  0  0  0  0
    7.0538    3.5397    1.3283 C   0  0  0  0  0  0  0  0  0  0  0  0
    7.4965    2.8466    2.4570 C   0  0  0  0  0  0  0  0  0  0  0  0
    7.2630    1.4738    2.5697 C   0  0  0  0  0  0  0  0  0  0  0  0
    7.6865    0.8033    3.6696 F   0  0  0  0  0  0  0  0  0  0  0  0
    6.5922    0.7905    1.5506 C   0  0  0  0  0  0  0  0  0  0  0  0
    3.0417    1.5917   -1.2341 C   0  0  0  0  0  0  0  0  0  0  0  0
    3.4876    2.4565   -2.0373 O   0  0  0  0  0  0  0  0  0  0  0  0
   -3.4653    0.6920   -1.9305 C   0  0  0  0  0  0  0  0  0  0  0  0
   -4.8348    0.4298   -1.8367 C   0  0  0  0  0  0  0  0  0  0  0  0
   -7.1477   -1.7102   -0.2452 C   0  0  0  0  0  0  0  0  0  0  0  0
   -8.5997   -1.9240    0.1925 C   0  0  0  0  0  0  0  0  0  0  0  0
  -10.6259   -0.1479    0.8646 H   0  0  0  0  0  0  0  0  0  0  0  0
  -10.5815   -0.6152    2.6148 H   0  0  0  0  0  0  0  0  0  0  0  0
  -10.9381   -1.8572    1.3781 H   0  0  0  0  0  0  0  0  0  0  0  0
   -8.5937    0.6557    2.4456 H   0  0  0  0  0  0  0  0  0  0  0  0
   -7.1655   -0.3814    2.3196 H   0  0  0  0  0  0  0  0  0  0  0  0
   -8.5519    1.1158    0.0164 H   0  0  0  0  0  0  0  0  0  0  0  0
   -7.0077    1.5716    0.7803 H   0  0  0  0  0  0  0  0  0  0  0  0
   -7.3572    0.0006   -1.5149 H   0  0  0  0  0  0  0  0  0  0  0  0
   -5.0031   -0.2685    1.4939 H   0  0  0  0  0  0  0  0  0  0  0  0
   -2.6157    0.2043    1.3345 H   0  0  0  0  0  0  0  0  0  0  0  0
   -1.3952    2.5809   -2.2197 H   0  0  0  0  0  0  0  0  0  0  0  0
    1.0041    2.9914   -2.4267 H   0  0  0  0  0  0  0  0  0  0  0  0
   -0.6121   -0.7664    0.3848 H   0  0  0  0  0  0  0  0  0  0  0  0
    2.3303   -1.4496   -0.2922 H   0  0  0  0  0  0  0  0  0  0  0  0
    1.6424   -1.0204    1.3166 H   0  0  0  0  0  0  0  0  0  0  0  0
    4.1032   -0.5940    1.1840 H   0  0  0  0  0  0  0  0  0  0  0  0
    3.1617    0.8931    1.5379 H   0  0  0  0  0  0  0  0  0  0  0  0
    5.5993    1.3167   -1.6595 H   0  0  0  0  0  0  0  0  0  0  0  0
    7.9445   -0.0771   -1.1164 H   0  0  0  0  0  0  0  0  0  0  0  0
    7.5247   -5.4453   -1.2666 H   0  0  0  0  0  0  0  0  0  0  0  0
   10.0645   -4.9147   -1.5561 H   0  0  0  0  0  0  0  0  0  0  0  0
    6.0379    3.4174   -0.5563 H   0  0  0  0  0  0  0  0  0  0  0  0
    7.2285    4.6049    1.2455 H   0  0  0  0  0  0  0  0  0  0  0  0
    8.0163    3.3747    3.2462 H   0  0  0  0  0  0  0  0  0  0  0  0
    6.4212   -0.2723    1.6606 H   0  0  0  0  0  0  0  0  0  0  0  0
   -3.0461    0.9378   -2.8982 H   0  0  0  0  0  0  0  0  0  0  0  0
   -5.4407    0.4908   -2.7322 H   0  0  0  0  0  0  0  0  0  0  0  0
   -6.4729   -2.0891    0.5537 H   0  0  0  0  0  0  0  0  0  0  0  0
   -6.9459   -2.2975   -1.1676 H   0  0  0  0  0  0  0  0  0  0  0  0
   -9.2682   -1.5607   -0.6223 H   0  0  0  0  0  0  0  0  0  0  0  0
   -8.7789   -3.0140    0.3110 H   0  0  0  0  0  0  0  0  0  0  0  0
  1  2  1  0
  2  3  1  0
  3  4  1  0
  4  5  1  0
  5  6  1  0
  6  7  2  0
  7  8  1  0
  8  9  2  0
  9 10  1  0
 10 11  2  0
 11 12  1  0
 12 13  2  0
 13 14  1  0
 14 15  2  0
 14 16  1  0
 16 17  1  0
 17 18  1  0
 18 19  1  0
 19 20  1  0
 20 21  2  0
 20 22  1  0
 22 23  1  0
 23 24  2  0
 24 25  1  0
 25 26  2  0
 26 27  1  0
 19 28  1  0
 28 29  2  0
 29 30  1  0
 30 31  2  0
 31 32  1  0
 32 33  1  0
 32 34  2  0
 18 35  1  0
 35 36  2  0
  9 37  1  0
 37 38  2  0
  5 39  1  0
 39 40  1  0
 40  2  1  0
 38  6  1  0
 15 10  1  0
 27 23  1  0
 34 28  1  0
 35 13  1  0
  1 41  1  0
  1 42  1  0
  1 43  1  0
  3 44  1  0
  3 45  1  0
  4 46  1  0
  4 47  1  0
  5 48  1  0
  7 49  1  0
  8 50  1  0
 11 51  1  0
 12 52  1  0
 15 53  1  0
 16 54  1  0
 16 55  1  0
 17 56  1  0
 17 57  1  0
 19 58  1  0
 22 59  1  0
 25 60  1  0
 26 61  1  0
 29 62  1  0
 30 63  1  0
 31 64  1  0
 34 65  1  0
 37 66  1  0
 38 67  1  0
 39 68  1  0
 39 69  1  0
 40 70  1  0
 40 71  1  0
M  END
$$$$
