REMARK  Name = 
REMARK  7 active torsions:
REMARK  status: ('A' for Active; 'I' for Inactive)
REMARK    1  A    between atoms: C_1  and  C_2
REMARK    2  A    between atoms: C_2  and  C_3
REMARK    3  A    between atoms: C_2  and  C_4
REMARK    4  A    between atoms: C_2  and  O_5
REMARK    5  A    between atoms: O_5  and  C_6
REMARK    6  A    between atoms: N_8  and  C_9
REMARK    7  A    between atoms: C_12  and  C_13
REMARK                            x       y       z     vdW  Elec       q    Type
REMARK                         _______ _______ _______ _____ _____    ______ ____
ROOT
ATOM      1  C   UNL     1       1.252   2.829  -4.785  0.00  0.00    +0.000 C 
ATOM      2  O   UNL     1       2.174   3.277  -5.448  0.00  0.00    +0.000 OA
ATOM      3  N   UNL     1       1.064   3.068  -3.456  0.00  0.00    +0.000 N 
ATOM      4  H   UNL     1       0.321   2.611  -3.000  0.00  0.00    +0.000 HD
ENDROOT
BRANCH   3   5
ATOM      5  C   UNL     1       1.906   3.965  -2.674  0.00  0.00    +0.000 C 
ATOM      6  C   UNL     1       1.917   3.520  -1.208  0.00  0.00    +0.000 C 
ATOM      7  C   UNL     1       2.654   4.500  -0.298  0.00  0.00    +0.000 C 
ATOM      8  C   UNL     1       2.103   5.926  -0.423  0.00  0.00    +0.000 C 
ATOM      9  C   UNL     1       2.174   6.379  -1.886  0.00  0.00    +0.000 C 
ATOM     10  C   UNL     1       1.434   5.418  -2.819  0.00  0.00    +0.000 C 
BRANCH   8  11
ATOM     11  C   UNL     1       2.851   6.843   0.526  0.00  0.00    +0.000 C 
ATOM     12  O   UNL     1       3.344   6.526   1.598  0.00  0.00    +0.000 OA
ATOM     13  O   UNL     1       2.870   8.135   0.143  0.00  0.00    +0.000 OA
ENDBRANCH   8  11
ENDBRANCH   3   5
BRANCH   1  14
ATOM     14  O   UNL     1       0.262   2.019  -5.237  0.00  0.00    +0.000 OA
BRANCH  14  16
ATOM     15  C   UNL     1       1.503   0.722  -6.930  0.00  0.00    +0.000 C 
ATOM     16  C   UNL     1       0.258   1.562  -6.618  0.00  0.00    +0.000 C 
ATOM     17  C   UNL     1       0.096   2.733  -7.595  0.00  0.00    +0.000 C 
ATOM     18  C   UNL     1      -0.975   0.650  -6.754  0.00  0.00    +0.000 C 
ENDBRANCH  14  16
ENDBRANCH   1  14
TORSDOF 4
