REMARK  Name = 
REMARK  1 active torsions:
REMARK  status: ('A' for Active; 'I' for Inactive)
REMARK    1  A    between atoms: C_1  and  C_2
REMARK                            x       y       z     vdW  Elec       q    Type
REMARK                         _______ _______ _______ _____ _____    ______ ____
ROOT
ATOM      1  C   UNL     1       1.073  -0.014  -0.022  0.00  0.00    +0.000 C 
ATOM      2  C   UNL     1       0.565   0.610  -1.280  0.00  0.00    +0.000 C 
ATOM      3  O   UNL     1      -0.139   0.078  -2.120  0.00  0.00    +0.000 OA
ATOM      4  O   UNL     1       0.969   1.886  -1.422  0.00  0.00    +0.000 OA
ENDROOT
TORSDOF 0
