REMARK  Name = 
REMARK  6 active torsions:
REMARK  status: ('A' for Active; 'I' for Inactive)
REMARK    1  A    between atoms: C_1  and  N_2
REMARK    2  A    between atoms: C_5  and  C_6
REMARK    3  A    between atoms: C_9  and  C_10
REMARK    4  A    between atoms: N_18  and  C_19
REMARK    5  A    between atoms: C_19  and  C_20
REMARK    6  A    between atoms: C_19  and  C_28
REMARK                            x       y       z     vdW  Elec       q    Type
REMARK                         _______ _______ _______ _____ _____    ______ ____
ROOT
ATOM      1  C   UNL     1       7.321   0.171   1.491  0.00  0.00    +0.000 A 
ATOM      2  C   UNL     1       8.352  -0.437   0.749  0.00  0.00    +0.000 A 
ATOM      3  C   UNL     1       9.536  -0.834   1.358  0.00  0.00    +0.000 A 
ATOM      4  C   UNL     1       9.723  -0.574   2.707  0.00  0.00    +0.000 A 
ATOM      5  C   UNL     1       8.886   0.357   3.334  0.00  0.00    +0.000 A 
ATOM      6  C   UNL     1       7.636   0.650   2.777  0.00  0.00    +0.000 A 
ATOM      7  C   UNL     1       9.497   1.165   4.462  0.00  0.00    +0.000 C 
ATOM      8  O   UNL     1       8.926   2.124   4.960  0.00  0.00    +0.000 OA
ATOM      9  N   UNL     1      10.829   0.801   4.780  0.00  0.00    +0.000 N 
ATOM     10  C   UNL     1      10.940  -0.653   4.887  0.00  0.00    +0.000 C 
ATOM     11  C   UNL     1      10.795  -1.280   3.494  0.00  0.00    +0.000 C 
ENDROOT
BRANCH   1  15
ATOM     12  C   UNL     1       3.370   0.317  -0.251  0.00  0.00    +0.000 A 
ATOM     13  C   UNL     1       3.554  -0.103   1.073  0.00  0.00    +0.000 A 
ATOM     14  C   UNL     1       4.835  -0.135   1.641  0.00  0.00    +0.000 A 
ATOM     15  C   UNL     1       5.968   0.260   0.909  0.00  0.00    +0.000 A 
ATOM     16  C   UNL     1       5.774   0.640  -0.427  0.00  0.00    +0.000 A 
ATOM     17  C   UNL     1       4.500   0.663  -1.000  0.00  0.00    +0.000 A 
BRANCH  12  22
ATOM     18  C   UNL     1      -1.228   1.261  -3.561  0.00  0.00    +0.000 C 
ATOM     19  N   UNL     1       0.106   1.107  -2.982  0.00  0.00    +0.000 N 
ATOM     20  C   UNL     1       0.266   2.005  -1.829  0.00  0.00    +0.000 C 
ATOM     21  C   UNL     1       1.664   1.888  -1.232  0.00  0.00    +0.000 C 
ATOM     22  C   UNL     1       1.976   0.436  -0.834  0.00  0.00    +0.000 C 
ATOM     23  C   UNL     1       1.750  -0.488  -2.037  0.00  0.00    +0.000 C 
ATOM     24  C   UNL     1       0.344  -0.297  -2.608  0.00  0.00    +0.000 C 
ATOM     25  H   UNL     1       0.804   1.365  -3.679  0.00  0.00    +0.000 HD
ENDBRANCH  12  22
ENDBRANCH   1  15
BRANCH   9  26
ATOM     26  C   UNL     1      11.937   1.410   3.989  0.00  0.00    +0.000 C 
BRANCH  26  27
ATOM     27  C   UNL     1      11.678   1.941   2.532  0.00  0.00    +0.000 C 
ATOM     28  O   UNL     1      12.283   1.416   1.597  0.00  0.00    +0.000 OA
ATOM     29  N   UNL     1      10.789   2.990   2.436  0.00  0.00    +0.000 N 
ATOM     30  C   UNL     1      10.372   3.453   1.221  0.00  0.00    +0.000 A 
ATOM     31  N   UNL     1      10.547   2.950   0.026  0.00  0.00    +0.000 NA
ATOM     32  C   UNL     1       9.951   3.761  -0.912  0.00  0.00    +0.000 A 
ATOM     33  C   UNL     1       9.347   4.892  -0.411  0.00  0.00    +0.000 A 
ATOM     34  S   UNL     1       9.482   4.910   1.301  0.00  0.00    +0.000 S 
ATOM     35  H   UNL     1      10.449   3.412   3.258  0.00  0.00    +0.000 HD
ENDBRANCH  26  27
BRANCH  26  36
ATOM     36  C   UNL     1      12.966   2.276   4.706  0.00  0.00    +0.000 A 
ATOM     37  C   UNL     1      14.333   2.085   4.372  0.00  0.00    +0.000 A 
ATOM     38  C   UNL     1      15.322   2.950   4.821  0.00  0.00    +0.000 A 
ATOM     39  C   UNL     1      14.966   4.033   5.618  0.00  0.00    +0.000 A 
ATOM     40  C   UNL     1      13.632   4.198   5.992  0.00  0.00    +0.000 A 
ATOM     41  F   UNL     1      13.300   5.247   6.756  0.00  0.00    +0.000 F 
ATOM     42  C   UNL     1      12.631   3.326   5.557  0.00  0.00    +0.000 A 
ENDBRANCH  26  36
ENDBRANCH   9  26
TORSDOF 5
