REMARK  Name = 
REMARK  7 active torsions:
REMARK  status: ('A' for Active; 'I' for Inactive)
REMARK    1  A    between atoms: C_2  and  C_3
REMARK    2  A    between atoms: C_8  and  O_9
REMARK    3  A    between atoms: O_9  and  C_10
REMARK    4  A    between atoms: C_13  and  N_14
REMARK    5  A    between atoms: N_14  and  C_15
REMARK    6  A    between atoms: C_29  and  O_30
REMARK    7  A    between atoms: O_30  and  C_31
REMARK                            x       y       z     vdW  Elec       q    Type
REMARK                         _______ _______ _______ _____ _____    ______ ____
ROOT
ATOM      1  C   UNL     1      -5.696   1.084   2.758  0.00  0.00    +0.000 A 
ATOM      2  C   UNL     1      -5.916   1.916   3.857  0.00  0.00    +0.000 A 
ATOM      3  C   UNL     1      -6.271   3.250   3.679  0.00  0.00    +0.000 A 
ATOM      4  C   UNL     1      -6.221   4.201   4.717  0.00  0.00    +0.000 A 
ATOM      5  N   UNL     1      -6.506   5.494   4.493  0.00  0.00    +0.000 NA
ATOM      6  C   UNL     1      -6.854   5.811   3.245  0.00  0.00    +0.000 A 
ATOM      7  N   UNL     1      -6.962   4.973   2.196  0.00  0.00    +0.000 NA
ATOM      8  C   UNL     1      -6.660   3.686   2.413  0.00  0.00    +0.000 A 
ATOM      9  C   UNL     1      -6.732   2.741   1.380  0.00  0.00    +0.000 A 
ATOM     10  C   UNL     1      -6.320   1.411   1.543  0.00  0.00    +0.000 A 
ENDROOT
BRANCH   4  11
ATOM     11  N   UNL     1      -5.789   3.818   6.015  0.00  0.00    +0.000 N 
ATOM     12  H   UNL     1      -5.131   3.087   6.069  0.00  0.00    +0.000 HD
BRANCH  11  13
ATOM     13  C   UNL     1      -6.215   4.388   7.239  0.00  0.00    +0.000 A 
ATOM     14  C   UNL     1      -7.494   4.945   7.363  0.00  0.00    +0.000 A 
ATOM     15  C   UNL     1      -7.961   5.420   8.587  0.00  0.00    +0.000 A 
ATOM     16  C   UNL     1      -7.158   5.333   9.725  0.00  0.00    +0.000 A 
ATOM     17 CL   UNL     1      -7.814   5.927  11.208  0.00  0.00    +0.000 Cl
ATOM     18  C   UNL     1      -5.883   4.763   9.637  0.00  0.00    +0.000 A 
ATOM     19 CL   UNL     1      -4.852   4.615  11.017  0.00  0.00    +0.000 Cl
ATOM     20  C   UNL     1      -5.431   4.286   8.398  0.00  0.00    +0.000 A 
ATOM     21  F   UNL     1      -4.217   3.713   8.303  0.00  0.00    +0.000 F 
ENDBRANCH  11  13
ENDBRANCH   4  11
BRANCH   1  22
ATOM     22  O   UNL     1      -4.772   0.042   2.865  0.00  0.00    +0.000 OA
BRANCH  22  28
ATOM     23  C   UNL     1       0.119   0.537   5.447  0.00  0.00    +0.000 C 
ATOM     24  O   UNL     1       0.533  -0.492   5.975  0.00  0.00    +0.000 OA
ATOM     25  N   UNL     1      -1.215   0.752   5.141  0.00  0.00    +0.000 N 
ATOM     26  C   UNL     1      -2.197  -0.229   5.621  0.00  0.00    +0.000 C 
ATOM     27  C   UNL     1      -3.008  -0.817   4.454  0.00  0.00    +0.000 C 
ATOM     28  C   UNL     1      -3.669   0.372   3.754  0.00  0.00    +0.000 C 
ATOM     29  C   UNL     1      -2.577   1.258   3.135  0.00  0.00    +0.000 C 
ATOM     30  C   UNL     1      -1.730   1.830   4.281  0.00  0.00    +0.000 C 
BRANCH  23  32
ATOM     31  C   UNL     1       2.321   1.347   4.765  0.00  0.00    +0.000 C 
ATOM     32  C   UNL     1       1.063   1.637   5.126  0.00  0.00    +0.000 C 
ENDBRANCH  23  32
ENDBRANCH  22  28
ENDBRANCH   1  22
BRANCH  10  33
ATOM     33  O   UNL     1      -6.416   0.462   0.566  0.00  0.00    +0.000 OA
BRANCH  33  34
ATOM     34  C   UNL     1      -7.540   0.303  -0.349  0.00  0.00    +0.000 C 
ATOM     35  C   UNL     1      -7.058   0.531  -1.786  0.00  0.00    +0.000 C 
ATOM     36  C   UNL     1      -8.195   0.364  -2.779  0.00  0.00    +0.000 C 
ATOM     37  O   UNL     1      -9.201   1.323  -2.477  0.00  0.00    +0.000 OA
ATOM     38  C   UNL     1      -9.869   1.006  -1.261  0.00  0.00    +0.000 C 
ATOM     39  C   UNL     1      -8.920   0.937  -0.054  0.00  0.00    +0.000 C 
ENDBRANCH  33  34
ENDBRANCH  10  33
TORSDOF 7
