MODEL 1
REMARK VINA RESULT:     0.000      0.000      0.000
REMARK INTER + INTRA:           0.000
REMARK INTER:                   0.000
REMARK INTRA:                   0.000
REMARK UNBOUND:                 0.000
REMARK  Name = 
REMARK  1 active torsions:
REMARK  status: ('A' for Active; 'I' for Inactive)
REMARK    1  A    between atoms: C_1  and  C_2
REMARK                            x       y       z     vdW  Elec       q    Type
REMARK                         _______ _______ _______ _____ _____    ______ ____
ROOT
ATOM      1  C   UNL     1      25.175  -5.029  31.988  0.00  0.00    +0.000 C 
ATOM      2  C   UNL     1      26.044  -4.345  32.992  0.00  0.00    +0.000 C 
ATOM      3  O   UNL     1      25.670  -3.730  33.974  0.00  0.00    +0.000 OA
ATOM      4  O   UNL     1      27.354  -4.472  32.710  0.00  0.00    +0.000 OA
ENDROOT
TORSDOF 0
ENDMDL
MODEL 2
REMARK VINA RESULT:     0.000      2.159      2.371
REMARK INTER + INTRA:           0.000
REMARK INTER:                   0.000
REMARK INTRA:                   0.000
REMARK UNBOUND:                 0.000
REMARK  Name = 
REMARK  1 active torsions:
REMARK  status: ('A' for Active; 'I' for Inactive)
REMARK    1  A    between atoms: C_1  and  C_2
REMARK                            x       y       z     vdW  Elec       q    Type
REMARK                         _______ _______ _______ _____ _____    ______ ____
ROOT
ATOM      1  C   UNL     1      23.527  -5.514  31.364  0.00  0.00    +0.000 C 
ATOM      2  C   UNL     1      24.701  -4.593  31.297  0.00  0.00    +0.000 C 
ATOM      3  O   UNL     1      25.089  -3.849  32.180  0.00  0.00    +0.000 OA
ATOM      4  O   UNL     1      25.337  -4.655  30.113  0.00  0.00    +0.000 OA
ENDROOT
TORSDOF 0
ENDMDL
MODEL 3
REMARK VINA RESULT:     0.000      3.855      3.884
REMARK INTER + INTRA:           0.000
REMARK INTER:                   0.000
REMARK INTRA:                   0.000
REMARK UNBOUND:                 0.000
REMARK  Name = 
REMARK  1 active torsions:
REMARK  status: ('A' for Active; 'I' for Inactive)
REMARK    1  A    between atoms: C_1  and  C_2
REMARK                            x       y       z     vdW  Elec       q    Type
REMARK                         _______ _______ _______ _____ _____    ______ ____
ROOT
ATOM      1  C   UNL     1      25.359  -5.379  29.515  0.00  0.00    +0.000 C 
ATOM      2  C   UNL     1      26.827  -5.147  29.375  0.00  0.00    +0.000 C 
ATOM      3  O   UNL     1      27.374  -4.087  29.125  0.00  0.00    +0.000 OA
ATOM      4  O   UNL     1      27.546  -6.270  29.559  0.00  0.00    +0.000 OA
ENDROOT
TORSDOF 0
ENDMDL
MODEL 4
REMARK VINA RESULT:     0.000     26.419     26.902
REMARK INTER + INTRA:           0.000
REMARK INTER:                   0.000
REMARK INTRA:                   0.000
REMARK UNBOUND:                 0.000
REMARK  Name = 
REMARK  1 active torsions:
REMARK  status: ('A' for Active; 'I' for Inactive)
REMARK    1  A    between atoms: C_1  and  C_2
REMARK                            x       y       z     vdW  Elec       q    Type
REMARK                         _______ _______ _______ _____ _____    ______ ____
ROOT
ATOM      1  C   UNL     1      12.760 -12.154   9.452  0.00  0.00    +0.000 C 
ATOM      2  C   UNL     1      13.222 -12.452  10.840  0.00  0.00    +0.000 C 
ATOM      3  O   UNL     1      14.373 -12.434  11.241  0.00  0.00    +0.000 OA
ATOM      4  O   UNL     1      12.206 -12.761  11.667  0.00  0.00    +0.000 OA
ENDROOT
TORSDOF 0
ENDMDL
MODEL 5
REMARK VINA RESULT:     0.000     17.673     18.085
REMARK INTER + INTRA:           0.000
REMARK INTER:                   0.000
REMARK INTRA:                   0.000
REMARK UNBOUND:                 0.000
REMARK  Name = 
REMARK  1 active torsions:
REMARK  status: ('A' for Active; 'I' for Inactive)
REMARK    1  A    between atoms: C_1  and  C_2
REMARK                            x       y       z     vdW  Elec       q    Type
REMARK                         _______ _______ _______ _____ _____    ______ ____
ROOT
ATOM      1  C   UNL     1      13.579   7.110  28.019  0.00  0.00    +0.000 C 
ATOM      2  C   UNL     1      12.522   6.135  27.616  0.00  0.00    +0.000 C 
ATOM      3  O   UNL     1      12.125   5.185  28.268  0.00  0.00    +0.000 OA
ATOM      4  O   UNL     1      12.009   6.404  26.401  0.00  0.00    +0.000 OA
ENDROOT
TORSDOF 0
ENDMDL
MODEL 6
REMARK VINA RESULT:     0.000     16.658     16.827
REMARK INTER + INTRA:           0.000
REMARK INTER:                   0.000
REMARK INTRA:                   0.000
REMARK UNBOUND:                 0.000
REMARK  Name = 
REMARK  1 active torsions:
REMARK  status: ('A' for Active; 'I' for Inactive)
REMARK    1  A    between atoms: C_1  and  C_2
REMARK                            x       y       z     vdW  Elec       q    Type
REMARK                         _______ _______ _______ _____ _____    ______ ____
ROOT
ATOM      1  C   UNL     1      14.679   6.841  30.174  0.00  0.00    +0.000 C 
ATOM      2  C   UNL     1      13.385   6.154  29.883  0.00  0.00    +0.000 C 
ATOM      3  O   UNL     1      12.491   5.926  30.678  0.00  0.00    +0.000 OA
ATOM      4  O   UNL     1      13.277   5.784  28.593  0.00  0.00    +0.000 OA
ENDROOT
TORSDOF 0
ENDMDL
MODEL 7
REMARK VINA RESULT:     0.000     28.689     29.106
REMARK INTER + INTRA:           0.000
REMARK INTER:                   0.000
REMARK INTRA:                   0.000
REMARK UNBOUND:                 0.000
REMARK  Name = 
REMARK  1 active torsions:
REMARK  status: ('A' for Active; 'I' for Inactive)
REMARK    1  A    between atoms: C_1  and  C_2
REMARK                            x       y       z     vdW  Elec       q    Type
REMARK                         _______ _______ _______ _____ _____    ______ ____
ROOT
ATOM      1  C   UNL     1       5.209  -8.723  12.057  0.00  0.00    +0.000 C 
ATOM      2  C   UNL     1       5.486  -9.742  13.113  0.00  0.00    +0.000 C 
ATOM      3  O   UNL     1       5.777 -10.911  12.934  0.00  0.00    +0.000 OA
ATOM      4  O   UNL     1       5.386  -9.236  14.357  0.00  0.00    +0.000 OA
ENDROOT
TORSDOF 0
ENDMDL
MODEL 8
REMARK VINA RESULT:     0.000     29.392     29.796
REMARK INTER + INTRA:           0.000
REMARK INTER:                   0.000
REMARK INTRA:                   0.000
REMARK UNBOUND:                 0.000
REMARK  Name = 
REMARK  1 active torsions:
REMARK  status: ('A' for Active; 'I' for Inactive)
REMARK    1  A    between atoms: C_1  and  C_2
REMARK                            x       y       z     vdW  Elec       q    Type
REMARK                         _______ _______ _______ _____ _____    ______ ____
ROOT
ATOM      1  C   UNL     1       3.770  -7.933  11.406  0.00  0.00    +0.000 C 
ATOM      2  C   UNL     1       4.892  -7.944  12.392  0.00  0.00    +0.000 C 
ATOM      3  O   UNL     1       5.938  -8.560  12.292  0.00  0.00    +0.000 OA
ATOM      4  O   UNL     1       4.643  -7.171  13.465  0.00  0.00    +0.000 OA
ENDROOT
TORSDOF 0
ENDMDL
MODEL 9
REMARK VINA RESULT:     0.000     22.476     22.971
REMARK INTER + INTRA:           0.000
REMARK INTER:                   0.000
REMARK INTRA:                   0.000
REMARK UNBOUND:                 0.000
REMARK  Name = 
REMARK  1 active torsions:
REMARK  status: ('A' for Active; 'I' for Inactive)
REMARK    1  A    between atoms: C_1  and  C_2
REMARK                            x       y       z     vdW  Elec       q    Type
REMARK                         _______ _______ _______ _____ _____    ______ ____
ROOT
ATOM      1  C   UNL     1      14.816  -7.737  12.240  0.00  0.00    +0.000 C 
ATOM      2  C   UNL     1      16.177  -8.234  12.602  0.00  0.00    +0.000 C 
ATOM      3  O   UNL     1      17.172  -8.195  11.901  0.00  0.00    +0.000 OA
ATOM      4  O   UNL     1      16.221  -8.758  13.840  0.00  0.00    +0.000 OA
ENDROOT
TORSDOF 0
ENDMDL
