MODEL 1
REMARK VINA RESULT:     0.000      0.000      0.000
REMARK INTER + INTRA:          -0.394
REMARK INTER:                   0.000
REMARK INTRA:                  -0.394
REMARK UNBOUND:                -0.394
REMARK  Name = 
REMARK  4 active torsions:
REMARK  status: ('A' for Active; 'I' for Inactive)
REMARK    1  A    between atoms: C_1  and  O_2
REMARK    2  A    between atoms: O_2  and  C_3
REMARK    3  A    between atoms: C_6  and  C_9
REMARK    4  A    between atoms: N_11  and  C_12
REMARK                            x       y       z     vdW  Elec       q    Type
REMARK                         _______ _______ _______ _____ _____    ______ ____
ROOT
ATOM      1  C   UNL     1      13.857  -2.144  16.175  0.00  0.00    +0.000 C 
ATOM      2  O   UNL     1      13.577  -3.320  16.413  0.00  0.00    +0.000 OA
ATOM      3  N   UNL     1      13.694  -1.502  14.957  0.00  0.00    +0.000 N 
ATOM      4  H   UNL     1      13.996  -0.567  14.894  0.00  0.00    +0.000 HD
ENDROOT
BRANCH   1   8
ATOM      5  C   UNL     1      15.872   0.189  19.177  0.00  0.00    +0.000 A 
ATOM      6  C   UNL     1      15.549   0.739  17.939  0.00  0.00    +0.000 A 
ATOM      7  C   UNL     1      14.854  -0.023  16.994  0.00  0.00    +0.000 A 
ATOM      8  C   UNL     1      14.479  -1.347  17.272  0.00  0.00    +0.000 A 
ATOM      9  C   UNL     1      14.779  -1.890  18.524  0.00  0.00    +0.000 A 
ATOM     10  C   UNL     1      15.468  -1.118  19.470  0.00  0.00    +0.000 A 
BRANCH   5  12
ATOM     11  C   UNL     1      16.861   0.038  21.334  0.00  0.00    +0.000 C 
ATOM     12  O   UNL     1      16.579   0.808  20.170  0.00  0.00    +0.000 OA
ENDBRANCH   5  12
ENDBRANCH   1   8
BRANCH   3  13
ATOM     13  C   UNL     1      13.128  -2.081  13.797  0.00  0.00    +0.000 A 
ATOM     14  C   UNL     1      11.756  -2.082  13.531  0.00  0.00    +0.000 A 
ATOM     15  C   UNL     1      11.245  -2.760  12.420  0.00  0.00    +0.000 A 
ATOM     16  C   UNL     1      12.104  -3.433  11.557  0.00  0.00    +0.000 A 
ATOM     17  C   UNL     1      13.480  -3.387  11.778  0.00  0.00    +0.000 A 
ATOM     18  C   UNL     1      13.991  -2.697  12.882  0.00  0.00    +0.000 A 
ENDBRANCH   3  13
TORSDOF 3
ENDMDL
MODEL 2
REMARK VINA RESULT:     0.000      5.235      7.264
REMARK INTER + INTRA:          -0.394
REMARK INTER:                   0.000
REMARK INTRA:                  -0.394
REMARK UNBOUND:                -0.394
REMARK  Name = 
REMARK  4 active torsions:
REMARK  status: ('A' for Active; 'I' for Inactive)
REMARK    1  A    between atoms: C_1  and  O_2
REMARK    2  A    between atoms: O_2  and  C_3
REMARK    3  A    between atoms: C_6  and  C_9
REMARK    4  A    between atoms: N_11  and  C_12
REMARK                            x       y       z     vdW  Elec       q    Type
REMARK                         _______ _______ _______ _____ _____    ______ ____
ROOT
ATOM      1  C   UNL     1      16.204   4.407  16.975  0.00  0.00    +0.000 C 
ATOM      2  O   UNL     1      15.843   5.537  17.307  0.00  0.00    +0.000 OA
ATOM      3  N   UNL     1      16.843   4.075  15.789  0.00  0.00    +0.000 N 
ATOM      4  H   UNL     1      17.042   3.123  15.634  0.00  0.00    +0.000 HD
ENDROOT
BRANCH   1   8
ATOM      5  C   UNL     1      15.123   1.045  19.432  0.00  0.00    +0.000 A 
ATOM      6  C   UNL     1      15.858   0.870  18.263  0.00  0.00    +0.000 A 
ATOM      7  C   UNL     1      16.238   1.981  17.502  0.00  0.00    +0.000 A 
ATOM      8  C   UNL     1      15.881   3.280  17.898  0.00  0.00    +0.000 A 
ATOM      9  C   UNL     1      15.166   3.457  19.085  0.00  0.00    +0.000 A 
ATOM     10  C   UNL     1      14.797   2.340  19.847  0.00  0.00    +0.000 A 
BRANCH   5  12
ATOM     11  C   UNL     1      13.862   0.442  21.356  0.00  0.00    +0.000 C 
ATOM     12  O   UNL     1      14.656   0.047  20.243  0.00  0.00    +0.000 OA
ENDBRANCH   5  12
ENDBRANCH   1   8
BRANCH   3  13
ATOM     13  C   UNL     1      17.233   4.992  14.786  0.00  0.00    +0.000 A 
ATOM     14  C   UNL     1      18.457   5.666  14.796  0.00  0.00    +0.000 A 
ATOM     15  C   UNL     1      18.744   6.638  13.834  0.00  0.00    +0.000 A 
ATOM     16  C   UNL     1      17.813   6.938  12.843  0.00  0.00    +0.000 A 
ATOM     17  C   UNL     1      16.615   6.229  12.787  0.00  0.00    +0.000 A 
ATOM     18  C   UNL     1      16.334   5.247  13.742  0.00  0.00    +0.000 A 
ENDBRANCH   3  13
TORSDOF 3
ENDMDL
MODEL 3
REMARK VINA RESULT:     0.000      8.652     13.035
REMARK INTER + INTRA:          -0.394
REMARK INTER:                   0.000
REMARK INTRA:                  -0.394
REMARK UNBOUND:                -0.394
REMARK  Name = 
REMARK  4 active torsions:
REMARK  status: ('A' for Active; 'I' for Inactive)
REMARK    1  A    between atoms: C_1  and  O_2
REMARK    2  A    between atoms: O_2  and  C_3
REMARK    3  A    between atoms: C_6  and  C_9
REMARK    4  A    between atoms: N_11  and  C_12
REMARK                            x       y       z     vdW  Elec       q    Type
REMARK                         _______ _______ _______ _____ _____    ______ ____
ROOT
ATOM      1  C   UNL     1      18.554  -2.066  26.833  0.00  0.00    +0.000 C 
ATOM      2  O   UNL     1      19.687  -2.095  27.316  0.00  0.00    +0.000 OA
ATOM      3  N   UNL     1      17.401  -1.664  27.491  0.00  0.00    +0.000 N 
ATOM      4  H   UNL     1      16.552  -1.726  26.997  0.00  0.00    +0.000 HD
ENDROOT
BRANCH   1   8
ATOM      5  C   UNL     1      17.902  -3.674  22.896  0.00  0.00    +0.000 A 
ATOM      6  C   UNL     1      16.850  -3.138  23.634  0.00  0.00    +0.000 A 
ATOM      7  C   UNL     1      17.091  -2.579  24.893  0.00  0.00    +0.000 A 
ATOM      8  C   UNL     1      18.388  -2.556  25.433  0.00  0.00    +0.000 A 
ATOM      9  C   UNL     1      19.447  -3.069  24.681  0.00  0.00    +0.000 A 
ATOM     10  C   UNL     1      19.200  -3.619  23.416  0.00  0.00    +0.000 A 
BRANCH   5  12
ATOM     11  C   UNL     1      18.993  -4.826  21.124  0.00  0.00    +0.000 C 
ATOM     12  O   UNL     1      17.798  -4.283  21.675  0.00  0.00    +0.000 OA
ENDBRANCH   5  12
ENDBRANCH   1   8
BRANCH   3  13
ATOM     13  C   UNL     1      17.346  -1.170  28.816  0.00  0.00    +0.000 A 
ATOM     14  C   UNL     1      17.527   0.176  29.141  0.00  0.00    +0.000 A 
ATOM     15  C   UNL     1      17.565   0.589  30.476  0.00  0.00    +0.000 A 
ATOM     16  C   UNL     1      17.409  -0.341  31.500  0.00  0.00    +0.000 A 
ATOM     17  C   UNL     1      17.167  -1.677  31.186  0.00  0.00    +0.000 A 
ATOM     18  C   UNL     1      17.116  -2.087  29.850  0.00  0.00    +0.000 A 
ENDBRANCH   3  13
TORSDOF 3
ENDMDL
MODEL 4
REMARK VINA RESULT:     0.000      4.778      8.295
REMARK INTER + INTRA:          -0.394
REMARK INTER:                   0.000
REMARK INTRA:                  -0.394
REMARK UNBOUND:                -0.394
REMARK  Name = 
REMARK  4 active torsions:
REMARK  status: ('A' for Active; 'I' for Inactive)
REMARK    1  A    between atoms: C_1  and  O_2
REMARK    2  A    between atoms: O_2  and  C_3
REMARK    3  A    between atoms: C_6  and  C_9
REMARK    4  A    between atoms: N_11  and  C_12
REMARK                            x       y       z     vdW  Elec       q    Type
REMARK                         _______ _______ _______ _____ _____    ______ ____
ROOT
ATOM      1  C   UNL     1      11.306   1.810  15.783  0.00  0.00    +0.000 C 
ATOM      2  O   UNL     1      12.322   2.484  15.602  0.00  0.00    +0.000 OA
ATOM      3  N   UNL     1      11.089   0.939  16.840  0.00  0.00    +0.000 N 
ATOM      4  H   UNL     1      10.244   0.432  16.843  0.00  0.00    +0.000 HD
ENDROOT
BRANCH   1   8
ATOM      5  C   UNL     1       8.242   1.768  12.764  0.00  0.00    +0.000 A 
ATOM      6  C   UNL     1       8.108   1.020  13.931  0.00  0.00    +0.000 A 
ATOM      7  C   UNL     1       9.095   1.083  14.920  0.00  0.00    +0.000 A 
ATOM      8  C   UNL     1      10.232   1.890  14.751  0.00  0.00    +0.000 A 
ATOM      9  C   UNL     1      10.353   2.661  13.593  0.00  0.00    +0.000 A 
ATOM     10  C   UNL     1       9.356   2.600  12.609  0.00  0.00    +0.000 A 
BRANCH   5  12
ATOM     11  C   UNL     1       7.737   2.555  10.577  0.00  0.00    +0.000 C 
ATOM     12  O   UNL     1       7.374   1.767  11.706  0.00  0.00    +0.000 OA
ENDBRANCH   5  12
ENDBRANCH   1   8
BRANCH   3  13
ATOM     13  C   UNL     1      11.981   0.720  17.916  0.00  0.00    +0.000 A 
ATOM     14  C   UNL     1      11.989   1.498  19.077  0.00  0.00    +0.000 A 
ATOM     15  C   UNL     1      12.962   1.300  20.061  0.00  0.00    +0.000 A 
ATOM     16  C   UNL     1      13.928   0.311  19.900  0.00  0.00    +0.000 A 
ATOM     17  C   UNL     1      13.892  -0.511  18.775  0.00  0.00    +0.000 A 
ATOM     18  C   UNL     1      12.911  -0.321  17.797  0.00  0.00    +0.000 A 
ENDBRANCH   3  13
TORSDOF 3
ENDMDL
MODEL 5
REMARK VINA RESULT:     0.000      5.318      7.999
REMARK INTER + INTRA:          -0.394
REMARK INTER:                   0.000
REMARK INTRA:                  -0.394
REMARK UNBOUND:                -0.394
REMARK  Name = 
REMARK  4 active torsions:
REMARK  status: ('A' for Active; 'I' for Inactive)
REMARK    1  A    between atoms: C_1  and  O_2
REMARK    2  A    between atoms: O_2  and  C_3
REMARK    3  A    between atoms: C_6  and  C_9
REMARK    4  A    between atoms: N_11  and  C_12
REMARK                            x       y       z     vdW  Elec       q    Type
REMARK                         _______ _______ _______ _____ _____    ______ ____
ROOT
ATOM      1  C   UNL     1      17.849   2.409  16.946  0.00  0.00    +0.000 C 
ATOM      2  O   UNL     1      18.618   2.559  17.896  0.00  0.00    +0.000 OA
ATOM      3  N   UNL     1      16.512   2.776  16.919  0.00  0.00    +0.000 N 
ATOM      4  H   UNL     1      16.000   2.563  16.104  0.00  0.00    +0.000 HD
ENDROOT
BRANCH   1   8
ATOM      5  C   UNL     1      19.183   0.236  13.480  0.00  0.00    +0.000 A 
ATOM      6  C   UNL     1      17.893   0.756  13.547  0.00  0.00    +0.000 A 
ATOM      7  C   UNL     1      17.494   1.498  14.664  0.00  0.00    +0.000 A 
ATOM      8  C   UNL     1      18.378   1.724  15.731  0.00  0.00    +0.000 A 
ATOM      9  C   UNL     1      19.681   1.225  15.651  0.00  0.00    +0.000 A 
ATOM     10  C   UNL     1      20.077   0.490  14.526  0.00  0.00    +0.000 A 
BRANCH   5  12
ATOM     11  C   UNL     1      21.014  -1.024  12.633  0.00  0.00    +0.000 C 
ATOM     12  O   UNL     1      19.686  -0.536  12.470  0.00  0.00    +0.000 OA
ENDBRANCH   5  12
ENDBRANCH   1   8
BRANCH   3  13
ATOM     13  C   UNL     1      15.822   3.433  17.965  0.00  0.00    +0.000 A 
ATOM     14  C   UNL     1      15.792   4.822  18.110  0.00  0.00    +0.000 A 
ATOM     15  C   UNL     1      15.182   5.410  19.222  0.00  0.00    +0.000 A 
ATOM     16  C   UNL     1      14.584   4.612  20.194  0.00  0.00    +0.000 A 
ATOM     17  C   UNL     1      14.555   3.229  20.028  0.00  0.00    +0.000 A 
ATOM     18  C   UNL     1      15.154   2.643  18.909  0.00  0.00    +0.000 A 
ENDBRANCH   3  13
TORSDOF 3
ENDMDL
MODEL 6
REMARK VINA RESULT:     0.000      6.881      9.226
REMARK INTER + INTRA:          -0.394
REMARK INTER:                   0.000
REMARK INTRA:                  -0.394
REMARK UNBOUND:                -0.394
REMARK  Name = 
REMARK  4 active torsions:
REMARK  status: ('A' for Active; 'I' for Inactive)
REMARK    1  A    between atoms: C_1  and  O_2
REMARK    2  A    between atoms: O_2  and  C_3
REMARK    3  A    between atoms: C_6  and  C_9
REMARK    4  A    between atoms: N_11  and  C_12
REMARK                            x       y       z     vdW  Elec       q    Type
REMARK                         _______ _______ _______ _____ _____    ______ ____
ROOT
ATOM      1  C   UNL     1      21.825  -0.315  16.355  0.00  0.00    +0.000 C 
ATOM      2  O   UNL     1      22.840  -0.148  17.032  0.00  0.00    +0.000 OA
ATOM      3  N   UNL     1      21.126   0.677  15.683  0.00  0.00    +0.000 N 
ATOM      4  H   UNL     1      20.306   0.410  15.208  0.00  0.00    +0.000 HD
ENDROOT
BRANCH   1   8
ATOM      5  C   UNL     1      19.958  -4.190  16.282  0.00  0.00    +0.000 A 
ATOM      6  C   UNL     1      19.422  -3.123  15.565  0.00  0.00    +0.000 A 
ATOM      7  C   UNL     1      20.070  -1.883  15.566  0.00  0.00    +0.000 A 
ATOM      8  C   UNL     1      21.258  -1.693  16.290  0.00  0.00    +0.000 A 
ATOM      9  C   UNL     1      21.810  -2.771  16.986  0.00  0.00    +0.000 A 
ATOM     10  C   UNL     1      21.160  -4.013  16.974  0.00  0.00    +0.000 A 
BRANCH   5  12
ATOM     11  C   UNL     1      20.085  -6.364  17.238  0.00  0.00    +0.000 C 
ATOM     12  O   UNL     1      19.407  -5.437  16.396  0.00  0.00    +0.000 OA
ENDBRANCH   5  12
ENDBRANCH   1   8
BRANCH   3  13
ATOM     13  C   UNL     1      21.496   2.041  15.623  0.00  0.00    +0.000 A 
ATOM     14  C   UNL     1      22.370   2.558  14.662  0.00  0.00    +0.000 A 
ATOM     15  C   UNL     1      22.779   3.893  14.716  0.00  0.00    +0.000 A 
ATOM     16  C   UNL     1      22.309   4.729  15.724  0.00  0.00    +0.000 A 
ATOM     17  C   UNL     1      21.389   4.240  16.651  0.00  0.00    +0.000 A 
ATOM     18  C   UNL     1      20.969   2.908  16.589  0.00  0.00    +0.000 A 
ENDBRANCH   3  13
TORSDOF 3
ENDMDL
MODEL 7
REMARK VINA RESULT:     0.000      4.351      6.335
REMARK INTER + INTRA:          -0.394
REMARK INTER:                   0.000
REMARK INTRA:                  -0.394
REMARK UNBOUND:                -0.394
REMARK  Name = 
REMARK  4 active torsions:
REMARK  status: ('A' for Active; 'I' for Inactive)
REMARK    1  A    between atoms: C_1  and  O_2
REMARK    2  A    between atoms: O_2  and  C_3
REMARK    3  A    between atoms: C_6  and  C_9
REMARK    4  A    between atoms: N_11  and  C_12
REMARK                            x       y       z     vdW  Elec       q    Type
REMARK                         _______ _______ _______ _____ _____    ______ ____
ROOT
ATOM      1  C   UNL     1      17.158  -1.901  18.245  0.00  0.00    +0.000 C 
ATOM      2  O   UNL     1      17.011  -1.217  19.258  0.00  0.00    +0.000 OA
ATOM      3  N   UNL     1      17.237  -1.419  16.946  0.00  0.00    +0.000 N 
ATOM      4  H   UNL     1      17.316  -2.082  16.222  0.00  0.00    +0.000 HD
ENDROOT
BRANCH   1   8
ATOM      5  C   UNL     1      17.053  -6.190  18.565  0.00  0.00    +0.000 A 
ATOM      6  C   UNL     1      17.234  -5.568  17.332  0.00  0.00    +0.000 A 
ATOM      7  C   UNL     1      17.310  -4.173  17.256  0.00  0.00    +0.000 A 
ATOM      8  C   UNL     1      17.199  -3.382  18.411  0.00  0.00    +0.000 A 
ATOM      9  C   UNL     1      17.046  -4.008  19.651  0.00  0.00    +0.000 A 
ATOM     10  C   UNL     1      16.980  -5.406  19.721  0.00  0.00    +0.000 A 
BRANCH   5  12
ATOM     11  C   UNL     1      16.676  -7.958  20.110  0.00  0.00    +0.000 C 
ATOM     12  O   UNL     1      16.923  -7.535  18.773  0.00  0.00    +0.000 OA
ENDBRANCH   5  12
ENDBRANCH   1   8
BRANCH   3  13
ATOM     13  C   UNL     1      17.215  -0.054  16.577  0.00  0.00    +0.000 A 
ATOM     14  C   UNL     1      18.360   0.745  16.522  0.00  0.00    +0.000 A 
ATOM     15  C   UNL     1      18.262   2.113  16.252  0.00  0.00    +0.000 A 
ATOM     16  C   UNL     1      17.018   2.693  16.021  0.00  0.00    +0.000 A 
ATOM     17  C   UNL     1      15.877   1.895  16.013  0.00  0.00    +0.000 A 
ATOM     18  C   UNL     1      15.976   0.524  16.270  0.00  0.00    +0.000 A 
ENDBRANCH   3  13
TORSDOF 3
ENDMDL
MODEL 8
REMARK VINA RESULT:     0.000      8.739     11.186
REMARK INTER + INTRA:          -0.394
REMARK INTER:                   0.000
REMARK INTRA:                  -0.394
REMARK UNBOUND:                -0.394
REMARK  Name = 
REMARK  4 active torsions:
REMARK  status: ('A' for Active; 'I' for Inactive)
REMARK    1  A    between atoms: C_1  and  O_2
REMARK    2  A    between atoms: O_2  and  C_3
REMARK    3  A    between atoms: C_6  and  C_9
REMARK    4  A    between atoms: N_11  and  C_12
REMARK                            x       y       z     vdW  Elec       q    Type
REMARK                         _______ _______ _______ _____ _____    ______ ____
ROOT
ATOM      1  C   UNL     1      12.758   5.096  23.644  0.00  0.00    +0.000 C 
ATOM      2  O   UNL     1      12.554   5.241  22.438  0.00  0.00    +0.000 OA
ATOM      3  N   UNL     1      12.342   4.019  24.413  0.00  0.00    +0.000 N 
ATOM      4  H   UNL     1      12.540   4.048  25.377  0.00  0.00    +0.000 HD
ENDROOT
BRANCH   1   8
ATOM      5  C   UNL     1      14.574   8.297  25.872  0.00  0.00    +0.000 A 
ATOM      6  C   UNL     1      14.201   7.110  26.498  0.00  0.00    +0.000 A 
ATOM      7  C   UNL     1      13.653   6.065  25.747  0.00  0.00    +0.000 A 
ATOM      8  C   UNL     1      13.466   6.196  24.362  0.00  0.00    +0.000 A 
ATOM      9  C   UNL     1      13.866   7.376  23.730  0.00  0.00    +0.000 A 
ATOM     10  C   UNL     1      14.422   8.416  24.487  0.00  0.00    +0.000 A 
BRANCH   5  12
ATOM     11  C   UNL     1      15.333  10.542  25.672  0.00  0.00    +0.000 C 
ATOM     12  O   UNL     1      15.082   9.405  26.492  0.00  0.00    +0.000 OA
ENDBRANCH   5  12
ENDBRANCH   1   8
BRANCH   3  13
ATOM     13  C   UNL     1      11.657   2.882  23.925  0.00  0.00    +0.000 A 
ATOM     14  C   UNL     1      12.308   1.756  23.412  0.00  0.00    +0.000 A 
ATOM     15  C   UNL     1      11.578   0.706  22.848  0.00  0.00    +0.000 A 
ATOM     16  C   UNL     1      10.188   0.765  22.804  0.00  0.00    +0.000 A 
ATOM     17  C   UNL     1       9.527   1.854  23.368  0.00  0.00    +0.000 A 
ATOM     18  C   UNL     1      10.257   2.899  23.944  0.00  0.00    +0.000 A 
ENDBRANCH   3  13
TORSDOF 3
ENDMDL
MODEL 9
REMARK VINA RESULT:     0.000     13.793     15.188
REMARK INTER + INTRA:          -0.394
REMARK INTER:                   0.000
REMARK INTRA:                  -0.394
REMARK UNBOUND:                -0.394
REMARK  Name = 
REMARK  4 active torsions:
REMARK  status: ('A' for Active; 'I' for Inactive)
REMARK    1  A    between atoms: C_1  and  O_2
REMARK    2  A    between atoms: O_2  and  C_3
REMARK    3  A    between atoms: C_6  and  C_9
REMARK    4  A    between atoms: N_11  and  C_12
REMARK                            x       y       z     vdW  Elec       q    Type
REMARK                         _______ _______ _______ _____ _____    ______ ____
ROOT
ATOM      1  C   UNL     1      18.481   8.452  26.199  0.00  0.00    +0.000 C 
ATOM      2  O   UNL     1      18.802   9.623  26.409  0.00  0.00    +0.000 OA
ATOM      3  N   UNL     1      17.185   7.957  26.183  0.00  0.00    +0.000 N 
ATOM      4  H   UNL     1      17.072   6.989  26.039  0.00  0.00    +0.000 HD
ENDROOT
BRANCH   1   8
ATOM      5  C   UNL     1      21.551   5.459  25.840  0.00  0.00    +0.000 A 
ATOM      6  C   UNL     1      20.204   5.120  25.738  0.00  0.00    +0.000 A 
ATOM      7  C   UNL     1      19.223   6.115  25.813  0.00  0.00    +0.000 A 
ATOM      8  C   UNL     1      19.578   7.461  25.997  0.00  0.00    +0.000 A 
ATOM      9  C   UNL     1      20.930   7.804  26.072  0.00  0.00    +0.000 A 
ATOM     10  C   UNL     1      21.907   6.804  25.987  0.00  0.00    +0.000 A 
BRANCH   5  12
ATOM     11  C   UNL     1      23.900   5.137  26.013  0.00  0.00    +0.000 C 
ATOM     12  O   UNL     1      22.602   4.584  25.824  0.00  0.00    +0.000 OA
ENDBRANCH   5  12
ENDBRANCH   1   8
BRANCH   3  13
ATOM     13  C   UNL     1      16.012   8.729  26.355  0.00  0.00    +0.000 A 
ATOM     14  C   UNL     1      15.357   9.373  25.302  0.00  0.00    +0.000 A 
ATOM     15  C   UNL     1      14.262  10.207  25.548  0.00  0.00    +0.000 A 
ATOM     16  C   UNL     1      13.804  10.394  26.849  0.00  0.00    +0.000 A 
ATOM     17  C   UNL     1      14.411   9.708  27.899  0.00  0.00    +0.000 A 
ATOM     18  C   UNL     1      15.498   8.863  27.651  0.00  0.00    +0.000 A 
ENDBRANCH   3  13
TORSDOF 3
ENDMDL
